Circuit: * C:\Users\Maisam\Documents\LTspiceXVII\Solar Car\Lights\MaxLeds.asc

Direct Newton iteration for .op point succeeded.
Heightened Def Con from 0.00023827 to 0.000238285
Heightened Def Con from 0.000774943 to 0.000774958
Heightened Def Con from 0.00104791 to 0.00104793
Heightened Def Con from 0.00135586 to 0.00135587
Heightened Def Con from 0.00139695 to 0.00139697
Heightened Def Con from 0.00141734 to 0.00141736
Heightened Def Con from 0.00151893 to 0.00151895
Heightened Def Con from 0.00155443 to 0.00155445
Heightened Def Con from 0.00188888 to 0.00188889
Heightened Def Con from 0.00199778 to 0.00199779
Heightened Def Con from 0.00208641 to 0.00208643
Heightened Def Con from 0.00220289 to 0.00220291
Heightened Def Con from 0.00237254 to 0.00237255
Heightened Def Con from 0.00279789 to 0.0027979
Heightened Def Con from 0.00290675 to 0.00290677
Heightened Def Con from 0.00292954 to 0.00292955
Heightened Def Con from 0.003046 to 0.00304601
Heightened Def Con from 0.00343589 to 0.00343591
Heightened Def Con from 0.00358274 to 0.00358275
Heightened Def Con from 0.00375237 to 0.00375238
Heightened Def Con from 0.00376502 to 0.00376504
Heightened Def Con from 0.00384351 to 0.00384353

Date: Mon Jan 13 23:09:00 2020
Total elapsed time: 42.988 seconds.

tnom = 27
temp = 27
method = modified trap
totiter = 3205904
traniter = 3205872
tranpoints = 852552
accept = 633924
rejected = 218650
matrix size = 62
fillins = 44
solver = Normal
Matrix Compiler1: 5.28 KB object code size  1.3/0.7/[0.4]
Matrix Compiler2: off  [0.5]/0.9/0.6

