Circuit: * C:\Users\Maisam\Documents\LTspiceXVII\Solar Car\Lights\MinLeds.asc

Direct Newton iteration for .op point succeeded.
Heightened Def Con from 0.00109063 to 0.00109064
Heightened Def Con from 0.00135138 to 0.0013514
Heightened Def Con from 0.00148874 to 0.00148876
